ThreeDayCourse_v22/Day2/Solutions/5.1 Market Solutions/DR/DR1/IEEE_13_house_passiveDR.glm
//Input feeder information for IEEE 13 node with different cases.
//Started on 10/21/09. This version created 02-Nov-2010 09:01:10.

clock {
     timezone PST+8PDT;
     starttime '2000-08-01 00:00:00';
     stoptime '2000-08-08 00:00:00';
}

#include "light_schedule.glm";
#include "water_and_setpoint_schedule.glm";
#define stylesheet=http://gridlab-d.svn.sourceforge.net/viewvc/gridlab-d/trunk/core/gridlabd-2_0
#set minimum_timestep=60;
#set profiler=1;
#set relax_naming_rules=1;

module tape;
module climate;
module residential {
     implicit_enduses NONE;
};
module powerflow {
     solver_method FBS;
     NR_iteration_limit 50;
};

module market;

object stubauction {
     name Market_1;
     period 300;
     object player {
          file Price.player;
          loop 365;
          property current_market.clearing_price;
     };
     object recorder {
          property avg24,std24,last.P,current_market.clearing_price;
          limit 2880;
          interval 60;
          file price_statistics.csv;
     };
}

object climate {
     name "Seattle WA";
     tmyfile "WA-Seattle.tmy2";
     interpolate QUADRATIC;
};

//Configurations

object overhead_line_conductor {     
      name overhead_line_conductor_6010;     
      geometric_mean_radius 0.031300;     
      resistance 0.185900;     
}       

object overhead_line_conductor {     
      name overhead_line_conductor_6020;     
      geometric_mean_radius 0.00814;     
      resistance 0.592000;     
}       

object overhead_line_conductor {     
      name overhead_line_conductor_6030;     
      geometric_mean_radius 0.004460;     
      resistance 1.120000;     
}       

object underground_line_conductor {     
      name underground_line_conductor_6060;     
      outer_diameter 1.290000;     
      conductor_gmr 0.017100;     
      conductor_diameter 0.567000;     
      conductor_resistance 0.410000;     
      neutral_gmr 0.0020800;     
      neutral_resistance 14.87200;     
      neutral_diameter 0.0640837;     
      neutral_strands 13.000000;     
      shield_gmr 0.000000;     
      shield_resistance 0.000000;     
}       

object underground_line_conductor {     
      name underground_line_conductor_6070;     
      outer_diameter 1.060000;     
      conductor_gmr 0.011100;     
      conductor_diameter 0.368000;     
      conductor_resistance 0.970000;     
      neutral_gmr 0.011100;     
      neutral_resistance 0.970000;     
      neutral_diameter 0.0640837;     
      neutral_strands 6.000000;     
      shield_gmr 0.000000;     
      shield_resistance 0.000000;     
}       

object line_spacing {     
      name line_spacing_500601;     
      distance_AB 2.5;     
      distance_AC 4.5;     
      distance_BC 7.0;     
      distance_BN 5.656854;     
      distance_AN 4.272002;     
      distance_CN 5.0;     
}       

object line_spacing {     
      name line_spacing_500602;     
      distance_AC 2.5;     
      distance_AB 4.5;     
      distance_BC 7.0;     
      distance_CN 5.656854;     
      distance_AN 4.272002;     
      distance_BN 5.0;     
}       

object line_spacing {     
      name line_spacing_505603;     
      distance_AC 0.0;     
      distance_AB 0.0;     
      distance_BC 7.0;     
      distance_AN 0.0;     
      distance_CN 5.656854;     
      distance_BN 5.0;     
}       

object line_spacing {     
      name line_spacing_505604;     
      distance_AC 7.0;     
      distance_AB 0.0;     
      distance_BC 0.0;     
      distance_AN 5.656854;     
      distance_CN 5.0;     
      distance_BN 0.0;     
}       

object line_spacing {     
      name line_spacing_510;     
      distance_AC 0.0;     
      distance_AB 0.0;     
      distance_BC 0.0;     
      distance_AN 0.0;     
      distance_CN 5.0;     
      distance_BN 0.0;     
}       

object line_configuration {     
      name line_configuration_601;     
      conductor_A overhead_line_conductor_6010;     
      conductor_B overhead_line_conductor_6010;     
      conductor_C overhead_line_conductor_6010;     
      conductor_N overhead_line_conductor_6020;     
      spacing line_spacing_500601;     
}       

object line_configuration {     
      name line_configuration_602;     
      conductor_A overhead_line_conductor_6020;     
      conductor_B overhead_line_conductor_6020;     
      conductor_C overhead_line_conductor_6020;     
      conductor_N overhead_line_conductor_6020;     
      spacing line_spacing_500602;     
}       

object line_configuration {     
      name line_configuration_603;     
      conductor_B overhead_line_conductor_6030;     
      conductor_C overhead_line_conductor_6030;     
      conductor_N overhead_line_conductor_6030;     
      spacing line_spacing_505603;     
}       

object line_configuration {     
      name line_configuration_604;     
      conductor_A overhead_line_conductor_6030;     
      conductor_C overhead_line_conductor_6030;     
      conductor_N overhead_line_conductor_6030;     
      spacing line_spacing_505604;     
}       

object line_configuration {     
      name line_configuration_605;     
      conductor_C overhead_line_conductor_6030;     
      conductor_N overhead_line_conductor_6030;     
      spacing line_spacing_510;     
}       

object line_spacing {     
      name line_spacing_515;     
      distance_AB 0.500000;     
      distance_BC 0.500000;     
      distance_AC 1.000000;     
      distance_AN 0.000000;     
      distance_BN 0.000000;     
      distance_CN 0.000000;     
}       

object line_spacing {     
      name line_spacing_520;     
      distance_AB 0.000000;     
      distance_BC 0.000000;     
      distance_AC 0.000000;     
      distance_AN 0.083333;     
      distance_BN 0.000000;     
      distance_CN 0.000000;     
}       

object line_configuration {     
      name line_configuration_606;     
      conductor_A underground_line_conductor_6060;     
      conductor_B underground_line_conductor_6060;     
      conductor_C underground_line_conductor_6060;     
      spacing line_spacing_515;     
}       

object line_configuration {     
      name line_configuration_607;     
      conductor_A underground_line_conductor_6070;     
      conductor_N underground_line_conductor_6070;     
      spacing line_spacing_520;     
}       

object transformer_configuration {     
      name transformer_configuration_400;     
      connect_type WYE_WYE;     
      install_type PADMOUNT;     
      power_rating 500;     
      primary_voltage 4160;     
      secondary_voltage 480;     
      resistance 0.011;     
      reactance 0.02;     
}       

object regulator_configuration {     
      name regulator_configuration_6506321;     
      connect_type 1;     
      band_center 2401;     
      band_width 50;     
      time_delay 30.0;     
      raise_taps 16;     
      lower_taps 16;     
      CT_phase ABC;     
      PT_phase ABC;     
      regulation 0.10;     
      Control REMOTE_NODE;     
      Type A;     
      tap_pos_A 1;     
      tap_pos_B 1;     
      tap_pos_C 1;     
}       

object transformer_configuration {
     name trans_config_to_feeder;
     connect_type WYE_WYE;
     install_type PADMOUNT;
     primary_voltage 33000;
     secondary_voltage 2401.777;
     power_rating 5 MVA;
     impedance 0.00033+0.0022j;
}

object node {
     name network_node;
     bustype SWING;
     nominal_voltage 33000;
     phases ABCN;
}

object transformer {
     name substation_transformer;
     object recorder {
          file IEEE_13_house_passiveDR_transformer_power.csv;
          interval 60;
          limit 2880;
          property power_in_A.real,power_in_A.imag,power_in_B.real,power_in_B.imag,power_in_C.real,power_in_C.imag,power_out_A.real,power_out_A.imag,power_out_B.real,power_out_B.imag,power_out_C.real,power_out_C.imag,power_losses_A.real,power_losses_A.imag;
     };
     groupid Distribution_Trans;
     from network_node;
     to 650;
     phases ABCN;
     configuration trans_config_to_feeder;
};       
object overhead_line {     
      groupid Distribution_Line;
      phases BCN;     
      name 632-645;     
      from 632;     
      to 645;     
      length 500;     
      configuration line_configuration_603;     
}       
object overhead_line {     
      groupid Distribution_Line;
      phases BCN;     
      name 645-646;     
      from 645;     
      to 646;     
      length 300;     
      configuration line_configuration_603;     
}       
object overhead_line {     
      groupid Distribution_Line;
      phases ABCN;     
      name 630-632;     
      from 630;     
      to 632;     
      length 2000;     
      configuration line_configuration_601;     
}       
object overhead_line {     
      groupid Distribution_Line;
      phases ABCN;     
      name 632-6321;     
      from 632;     
      to 6321;     
      length 500;     
      configuration line_configuration_601;     
}       
object overhead_line {     
      groupid Distribution_Line;
      phases ABCN;     
      name 6321-671;     
      from 6321;     
      to 671;     
      length 1500;     
      configuration line_configuration_601;     
}       
object overhead_line {     
      groupid Distribution_Line;
      phases ABCN;     
      name 671-680;     
      from 671;     
      to 680;     
      length 1000;     
      configuration line_configuration_601;     
}       
object overhead_line {     
      groupid Distribution_Line;
      phases ACN;     
      name 671-684;     
      from 671;     
      to 684;     
      length 300;     
      configuration line_configuration_604;     
}       
object overhead_line {     
      groupid Distribution_Line;
      phases CN;     
      name 684-611;     
      from 684;     
      to 611;     
      length 300;     
      configuration line_configuration_605;     
}       
object underground_line {     
      groupid Distribution_Line;
      phases AN;     
      name 684-652;     
      from 684;     
      to 652;     
      length 800;     
      configuration line_configuration_607;     
}       
object underground_line {     
      groupid Distribution_Line;
      phases ABC;     
      name 692-675;     
      from 692;     
      to 675;     
      length 2500;     
      configuration line_configuration_606;     
}       
object overhead_line {     
      groupid Distribution_Line;
      phases ABCN;     
      name 632-633;     
      from 632;     
      to 633;     
      length 500;     
      configuration line_configuration_602;     
}       
object node {     
      name 633;     
      phases ABCN;     
      voltage_A 2401.7771;     
      voltage_B -1200.8886-2080.000j;     
      voltage_C -1200.8886+2080.000j;     
      nominal_voltage 2401.7771;     
}       
object node {     
      name 630;     
      phases ABCN;     
      voltage_A 2401.7771+0j;     
      voltage_B -1200.8886-2080.000j;     
      voltage_C -1200.8886+2080.000j;     
      nominal_voltage 2401.7771;     
}       
object node {     
      name 632;     
      phases ABCN;     
      voltage_A 2401.7771;     
      voltage_B -1200.8886-2080.000j;     
      voltage_C -1200.8886+2080.000j;     
      nominal_voltage 2401.7771;     
}       
object node {     
      name 650;     
      phases ABCN;     
      voltage_A 2401.7771;     
      voltage_B -1200.8886-2080.000j;     
      voltage_C -1200.8886+2080.000j;     
      nominal_voltage 2401.7771;     
}       
object node {     
      name 680;     
      phases ABCN;     
      voltage_A 2401.7771;     
      voltage_B -1200.8886-2080.000j;     
      voltage_C -1200.8886+2080.000j;     
      nominal_voltage 2401.7771;     
}       
object node {     
      name 684;     
      phases ACN;     
      voltage_A 2401.7771;     
      voltage_B -1200.8886-2080.000j;     
      voltage_C -1200.8886+2080.000j;     
      nominal_voltage 2401.7771;     
}       
object node {     
      name 634;     
      phases ABCN;     
      voltage_A 480.000+0j;     
      voltage_B -240.000-415.6922j;     
      voltage_C -240.000+415.6922j;     
      nominal_voltage 480.000;     
}       

object node {
      name 645;     
      phases BCN;     
      nominal_voltage 2401.7771;     
}


object node {
      name 646;     
      phases BC;     
      nominal_voltage 2401.7771;     
}


object node {
      name 652;     
      phases AN;     
      nominal_voltage 2401.7771;     
}


object node {
      name 671;     
      phases ABC;     
      nominal_voltage 2401.7771;     
}


object node {
      name 675;     
      phases ABC;     
      nominal_voltage 2401.7771;     
}


object node {
      name 692;     
      phases ABC;     
      nominal_voltage 2401.7771;     
}


object node {
      name 611;     
      phases CN;     
      nominal_voltage 2401.7771;     
}


object node {
      name 6711;     
      parent 671;     
      phases ABC;     
      nominal_voltage 2401.7771;     
}


object node {
      name 6321;     
      phases ABCN;     
      nominal_voltage 2401.7771;     
}

object switch {     
      phases ABCN;     
      name 671-692;     
      from 671;     
      to 692;     
      status CLOSED;     
}       
object transformer {     
      groupid Distribution_Trans;
      phases ABCN;     
      name 633-634;     
      from 633;     
      to 634;     
      configuration transformer_configuration_400;     
}       
object regulator {     
      name Reg1;     
      phases ABC;     
      from 650;     
      to 630;     
      sense_node 671;     
      configuration regulator_configuration_6506321;     
}       
object capacitor {     
      phases ABCN;     
      name CAP1;     
      pt_phase ABCN;     
      parent 675;     
      phases_connected ABCN;     
      control VOLT;     
      voltage_set_high 2425.0;     
      voltage_set_low 2300.0;     
      capacitor_A 0.10 MVAr;    
      capacitor_B 0.10 MVAr;    
      capacitor_C 0.10 MVAr;    
      control_level INDIVIDUAL;     
      time_delay 300.0;     
      dwell_time 0.0;     
      switchA CLOSED;     
      switchB CLOSED;     
      switchC CLOSED;     
      nominal_voltage 2401.7771;     
}       
object capacitor {     
      phases ABCN;     
      name CAP2;     
      pt_phase ABCN;     
      parent 675;     
      phases_connected ABCN;     
      control VOLT;     
      voltage_set_high 2440.0;     
      voltage_set_low 2375.0;     
      capacitor_A 0.05 MVAr;    
      capacitor_B 0.05 MVAr;    
      capacitor_C 0.05 MVAr;    
      control_level INDIVIDUAL;     
      time_delay 300.0;     
      dwell_time 0.0;     
      switchA CLOSED;     
      switchB CLOSED;     
      switchC CLOSED;     
      nominal_voltage 2401.7771;     
}       
object triplex_line_configuration {
      name trip_line_config;
      conductor_1 object triplex_line_conductor {
            resistance 0.97;
            geometric_mean_radius 0.01111;
            };
      conductor_2 object triplex_line_conductor {
            resistance 0.97;
            geometric_mean_radius 0.01111;
            };
      conductor_N object triplex_line_conductor {
            resistance 0.97;
            geometric_mean_radius 0.01111;
            };
      insulation_thickness 0.08;
      diameter 0.368;
}
object transformer {
       name CTTF_B_645;
       phases BS;
       from 645;
       to tn_B_645;
       configuration object transformer_configuration {
            connect_type SINGLE_PHASE_CENTER_TAPPED;
            install_type POLETOP;
            shunt_impedance 10000+10000j;
            primary_voltage 2401.777;
            secondary_voltage 120;
            powerB_rating 110 kVA;
            impedance 0.00033+0.0022j;
       };
       groupid Distribution_Trans;
}

object triplex_meter {
       name tn_B_645;
       phases BS;
       nominal_voltage 120;
}

object triplex_line {
       name tl_B_1_645;
       phases BS;
       from tn_B_645;
       to tm_B_1_645;
       length 16.35;
       configuration trip_line_config;
       groupid Triplex_Line;
}

object triplex_meter {
       name tm_B_1_645;
       phases BS;
       nominal_voltage 120;
       groupid House_Meter;
}

object house {
     parent tm_B_1_645;
     name house1B_tm_B_1_645;
     floor_area 1716;
     schedule_skew 722;
     heating_system_type GAS;
     cooling_system_type ELECTRIC;
          object passive_controller {
               base_setpoint cooling3*1;
               control_mode RAMP;
               sensitivity 1;
               expectation_obj Market_1;
               expectation_prop avg24;
               setpoint_prop cooling_setpoint;
               state_prop override;
               observation_obj Market_1;
               observation_prop current_market.clearing_price;
               mean_observation_prop avg24;
               stdev_observation_prop std24;

               // Standard deviation 2.27
               range_low -1.101;
               range_high 1.834;
               ramp_low 2.059;
               ramp_high 1.235;
          };

     thermal_integrity_level 6;
     air_temperature 70;
     mass_temperature 70;
     cooling_COP 3.1;
     object ZIPload {
           base_power LIGHTS*1.11;
           schedule_skew 722;
           heatgain_fraction 0.9;
           power_pf 1.000;
           current_pf 1.000;
           impedance_pf 1.000;
           impedance_fraction 0.300000;
           current_fraction 0.300000;
           power_fraction 0.400000;
     };
}

object triplex_line {
       name tl_B_2_645;
       phases BS;
       from tn_B_645;
       to tm_B_2_645;
       length 16.77;
       configuration trip_line_config;
       groupid Triplex_Line;
}

object triplex_meter {
       name tm_B_2_645;
       phases BS;
       nominal_voltage 120;
       groupid House_Meter;
}

object house {
     parent tm_B_2_645;
     name house2B_tm_B_2_645;
     floor_area 1971;
     schedule_skew -46;
     heating_system_type HEAT_PUMP;
     heating_COP 2.7;
     cooling_system_type ELECTRIC;
          object passive_controller {
               base_setpoint cooling7*1;
               control_mode RAMP;
               sensitivity 1;
               expectation_obj Market_1;
               expectation_prop avg24;
               setpoint_prop cooling_setpoint;
               state_prop override;
               observation_obj Market_1;
               observation_prop current_market.clearing_price;
               mean_observation_prop avg24;
               stdev_observation_prop std24;

               // Standard deviation 2.41
               range_low -0.880;
               range_high 1.467;
               ramp_low 2.741;
               ramp_high 1.644;
          };

          heating_setpoint heating6*1;
          object passive_controller {
               base_setpoint 100;
               control_mode NONE;
               sensitivity 1;
               expectation_obj Market_1;
               expectation_prop avg24;
               setpoint_prop heating_setpoint;
               state_prop override;
               observation_obj Market_1;
               observation_prop current_market.clearing_price;
               mean_observation_prop avg24;
               stdev_observation_prop std24;

               // Standard deviation -2.41
               range_low -1.467;
               range_high 0.880;
               ramp_low -1.644;
               ramp_high -2.741;
          };

     thermal_integrity_level 6;
     air_temperature 70;
     mass_temperature 70;
     cooling_COP 2.6;
     object ZIPload {
           base_power LIGHTS*0.88;
           schedule_skew -46;
           heatgain_fraction 0.9;
           power_pf 1.000;
           current_pf 1.000;
           impedance_pf 1.000;
           impedance_fraction 0.300000;
           current_fraction 0.300000;
           power_fraction 0.400000;
     };
     object waterheater {
          schedule_skew -46;
          tank_volume 50;
          heating_element_capacity 4.2 kW;
          tank_setpoint 128.2;
          temperature 135;
          thermostat_deadband 3.8;
          location INSIDE;
          tank_UA 3.7;
          demand water5*1;
          object passive_controller {
          	  period 300;
              control_mode PROBABILITY_OFF;
          	  distribution_type NORMAL;
          	  observation_object Market_1;
          	  expectation_object Market_1;
          	  comfort_level 0.59;
          	  state_property override;
          	  observation_property current_market.clearing_price;
          	  stdev_observation_property std24;
          	  expectation_property avg24;
          };
     };

}

object triplex_line {
       name tl_B_3_645;
       phases BS;
       from tn_B_645;
       to tm_B_3_645;
       length 15.52;
       configuration trip_line_config;
       groupid Triplex_Line;
}

object triplex_meter {
       name tm_B_3_645;
       phases BS;
       nominal_voltage 120;
       groupid House_Meter;
}

object house {
     parent tm_B_3_645;
     name house3B_tm_B_3_645;
     floor_area 2691;
     schedule_skew 2138;
     heating_system_type HEAT_PUMP;
     heating_COP 3.5;
     cooling_system_type ELECTRIC;
          object passive_controller {
               base_setpoint cooling4*1;
               control_mode RAMP;
               sensitivity 1;
               expectation_obj Market_1;
               expectation_prop avg24;
               setpoint_prop cooling_setpoint;
               state_prop override;
               observation_obj Market_1;
               observation_prop current_market.clearing_price;
               mean_observation_prop avg24;
               stdev_observation_prop std24;

               // Standard deviation 2.43
               range_low -0.859;
               range_high 1.431;
               ramp_low 2.828;
               ramp_high 1.697;
          };

          heating_setpoint heating7*1;
          object passive_controller {
               base_setpoint 100;
               control_mode NONE;
               sensitivity 1;
               expectation_obj Market_1;
               expectation_prop avg24;
               setpoint_prop heating_setpoint;
               state_prop override;
               observation_obj Market_1;
               observation_prop current_market.clearing_price;
               mean_observation_prop avg24;
               stdev_observation_prop std24;

               // Standard deviation -2.43
               range_low -1.431;
               range_high 0.859;
               ramp_low -1.697;
               ramp_high -2.828;
          };

     thermal_integrity_level 6;
     air_temperature 70;
     mass_temperature 70;
     cooling_COP 2.7;
     object ZIPload {
           base_power LIGHTS*1.59;
           schedule_skew 2138;
           heatgain_fraction 0.9;
           power_pf 1.000;
           current_pf 1.000;
           impedance_pf 1.000;
           impedance_fraction 0.300000;
           current_fraction 0.300000;
           power_fraction 0.400000;
     };
     object waterheater {
          schedule_skew 2138;
          tank_volume 50;
          heating_element_capacity 4.5 kW;
          tank_setpoint 135.5;
          temperature 135;
          thermostat_deadband 4.6;
          location INSIDE;
          tank_UA 3.0;
          demand water8*1;
          object passive_controller {
          	  period 300;
              control_mode PROBABILITY_OFF;
          	  distribution_type NORMAL;
          	  observation_object Market_1;
          	  expectation_object Market_1;
          	  comfort_level 0.57;
          	  state_property override;
          	  observation_property current_market.clearing_price;
          	  stdev_observation_property std24;
          	  expectation_property avg24;
          };
     };

}

object triplex_line {
       name tl_B_4_645;
       phases BS;
       from tn_B_645;
       to tm_B_4_645;
       length 13.61;
       configuration trip_line_config;
       groupid Triplex_Line;
}

object triplex_meter {
       name tm_B_4_645;
       phases BS;
       nominal_voltage 120;
       groupid House_Meter;
}

object house {
     parent tm_B_4_645;
     name house4B_tm_B_4_645;
     floor_area 2112;
     schedule_skew -324;
     heating_system_type HEAT_PUMP;
     heating_COP 2.2;
     cooling_system_type ELECTRIC;
          object passive_controller {
               base_setpoint cooling4*1;
               control_mode RAMP;
               sensitivity 1;
               expectation_obj Market_1;
               expectation_prop avg24;
               setpoint_prop cooling_setpoint;
               state_prop override;
               observation_obj Market_1;
               observation_prop current_market.clearing_price;
               mean_observation_prop avg24;
               stdev_observation_prop std24;

               // Standard deviation 2.29
               range_low -1.066;
               range_high 1.777;
               ramp_low 2.146;
               ramp_high 1.288;
          };

          heating_setpoint heating3*1;
          object passive_controller {
               base_setpoint 100;
               control_mode NONE;
               sensitivity 1;
               expectation_obj Market_1;
               expectation_prop avg24;
               setpoint_prop heating_setpoint;
               state_prop override;
               observation_obj Market_1;
               observation_prop current_market.clearing_price;
               mean_observation_prop avg24;
               stdev_observation_prop std24;

               // Standard deviation -2.29
               range_low -1.777;
               range_high 1.066;
               ramp_low -1.288;
               ramp_high -2.146;
          };

     thermal_integrity_level 6;
     air_temperature 70;
     mass_temperature 70;
     cooling_COP 2.7;
     object ZIPload {
           base_power LIGHTS*0.84;
           schedule_skew -324;
           heatgain_fraction 0.9;
           power_pf 1.000;
           current_pf 1.000;
           impedance_pf 1.000;
           impedance_fraction 0.300000;
           current_fraction 0.300000;
           power_fraction 0.400000;
     };
     object waterheater {
          schedule_skew -324;
          tank_volume 50;
          heating_element_capacity 4.8 kW;
          tank_setpoint 132.7;
          temperature 135;
          thermostat_deadband 2.5;
          location INSIDE;
          tank_UA 3.8;
          demand water17*1;
          object passive_controller {
          	  period 300;
              control_mode PROBABILITY_OFF;
          	  distribution_type NORMAL;
          	  observation_object Market_1;
          	  expectation_object Market_1;
          	  comfort_level 0.71;
          	  state_property override;
          	  observation_property current_market.clearing_price;
          	  stdev_observation_property std24;
          	  expectation_property avg24;
          };
     };

}

object triplex_line {
       name tl_B_5_645;
       phases BS;
       from tn_B_645;
       to tm_B_5_645;
       length 10.46;
       configuration trip_line_config;
       groupid Triplex_Line;
}

object triplex_meter {
       name tm_B_5_645;
       phases BS;
       nominal_voltage 120;
       groupid House_Meter;
}

object house {
     parent tm_B_5_645;
     name house5B_tm_B_5_645;
     floor_area 2068;
     schedule_skew -3600;
     heating_system_type GAS;
     cooling_system_type ELECTRIC;
          object passive_controller {
               base_setpoint cooling7*1;
               control_mode RAMP;
               sensitivity 1;
               expectation_obj Market_1;
               expectation_prop avg24;
               setpoint_prop cooling_setpoint;
               state_prop override;
               observation_obj Market_1;
               observation_prop current_market.clearing_price;
               mean_observation_prop avg24;
               stdev_observation_prop std24;

               // Standard deviation 2.51
               range_low -0.731;
               range_high 1.218;
               ramp_low 3.440;
               ramp_high 2.064;
          };

     thermal_integrity_level 5;
     air_temperature 70;
     mass_temperature 70;
     cooling_COP 2.5;
     object ZIPload {
           base_power LIGHTS*0.68;
           schedule_skew -3600;
           heatgain_fraction 0.9;
           power_pf 1.000;
           current_pf 1.000;
           impedance_pf 1.000;
           impedance_fraction 0.300000;
           current_fraction 0.300000;
           power_fraction 0.400000;
     };
}

object triplex_line {
       name tl_B_6_645;
       phases BS;
       from tn_B_645;
       to tm_B_6_645;
       length 10.16;
       configuration trip_line_config;
       groupid Triplex_Line;
}

object triplex_meter {
       name tm_B_6_645;
       phases BS;
       nominal_voltage 120;
       groupid House_Meter;
}

object house {
     parent tm_B_6_645;
     name house6B_tm_B_6_645;
     floor_area 2081;
     schedule_skew -2107;
     heating_system_type GAS;
     cooling_system_type ELECTRIC;
          object passive_controller {
               base_setpoint cooling4*1;
               control_mode RAMP;
               sensitivity 1;
               expectation_obj Market_1;
               expectation_prop avg24;
               setpoint_prop cooling_setpoint;
               state_prop override;
               observation_obj Market_1;
               observation_prop current_market.clearing_price;
               mean_observation_prop avg24;
               stdev_observation_prop std24;

               // Standard deviation 2.42
               range_low -0.865;
               range_high 1.441;
               ramp_low 2.802;
               ramp_high 1.681;
          };

     thermal_integrity_level 3;
     air_temperature 70;
     mass_temperature 70;
     cooling_COP 2.6;
     object ZIPload {
           base_power LIGHTS*1.13;
           schedule_skew -2107;
           heatgain_fraction 0.9;
           power_pf 1.000;
           current_pf 1.000;
           impedance_pf 1.000;
           impedance_fraction 0.300000;
           current_fraction 0.300000;
           power_fraction 0.400000;
     };
}

object triplex_line {
       name tl_B_7_645;
       phases BS;
       from tn_B_645;
       to tm_B_7_645;
       length 10.31;
       configuration trip_line_config;
       groupid Triplex_Line;
}

object triplex_meter {
       name tm_B_7_645;
       phases BS;
       nominal_voltage 120;
       groupid House_Meter;
}

object house {
     parent tm_B_7_645;
     name house7B_tm_B_7_645;
     floor_area 1803;
     schedule_skew 2285;
     heating_system_type GAS;
     cooling_system_type ELECTRIC;
          object passive_controller {
               base_setpoint cooling8*1;
               control_mode RAMP;
               sensitivity 1;
               expectation_obj Market_1;
               expectation_prop avg24;
               setpoint_prop cooling_setpoint;
               state_prop override;
               observation_obj Market_1;
               observation_prop current_market.clearing_price;
               mean_observation_prop avg24;
               stdev_observation_prop std24;

               // Standard deviation 2.49
               range_low -0.765;
               range_high 1.276;
               ramp_low 3.253;
               ramp_high 1.952;
          };

     thermal_integrity_level 4;
     air_temperature 70;
     mass_temperature 70;
     cooling_COP 3.6;
     object ZIPload {
           base_power LIGHTS*0.87;
           schedule_skew 2285;
           heatgain_fraction 0.9;
           power_pf 1.000;
           current_pf 1.000;
           impedance_pf 1.000;
           impedance_fraction 0.300000;
           current_fraction 0.300000;
           power_fraction 0.400000;
     };
}

object triplex_line {
       name tl_B_8_645;
       phases BS;
       from tn_B_645;
       to tm_B_8_645;
       length 14.53;
       configuration trip_line_config;
       groupid Triplex_Line;
}

object triplex_meter {
       name tm_B_8_645;
       phases BS;
       nominal_voltage 120;
       groupid House_Meter;
}

object house {
     parent tm_B_8_645;
     name house8B_tm_B_8_645;
     floor_area 1874;
     schedule_skew 1441;
     heating_system_type HEAT_PUMP;
     heating_COP 3.3;
     cooling_system_type ELECTRIC;
          object passive_controller {
               base_setpoint cooling1*1;
               control_mode RAMP;
               sensitivity 1;
               expectation_obj Market_1;
               expectation_prop avg24;
               setpoint_prop cooling_setpoint;
               state_prop override;
               observation_obj Market_1;
               observation_prop current_market.clearing_price;
               mean_observation_prop avg24;
               stdev_observation_prop std24;

               // Standard deviation 2.34
               range_low -0.984;
               range_high 1.640;
               ramp_low 2.382;
               ramp_high 1.429;
          };

          heating_setpoint heating6*1;
          object passive_controller {
               base_setpoint 100;
               control_mode NONE;
               sensitivity 1;
               expectation_obj Market_1;
               expectation_prop avg24;
               setpoint_prop heating_setpoint;
               state_prop override;
               observation_obj Market_1;
               observation_prop current_market.clearing_price;
               mean_observation_prop avg24;
               stdev_observation_prop std24;

               // Standard deviation -2.34
               range_low -1.640;
               range_high 0.984;
               ramp_low -1.429;
               ramp_high -2.382;
          };

     thermal_integrity_level 5;
     air_temperature 70;
     mass_temperature 70;
     cooling_COP 4.0;
     object ZIPload {
           base_power LIGHTS*0.79;
           schedule_skew 1441;
           heatgain_fraction 0.9;
           power_pf 1.000;
           current_pf 1.000;
           impedance_pf 1.000;
           impedance_fraction 0.300000;
           current_fraction 0.300000;
           power_fraction 0.400000;
     };
     object waterheater {
          schedule_skew 1441;
          tank_volume 50;
          heating_element_capacity 4.3 kW;
          tank_setpoint 127.1;
          temperature 135;
          thermostat_deadband 5.3;
          location INSIDE;
          tank_UA 2.1;
          demand water5*1;
          object passive_controller {
          	  period 300;
              control_mode PROBABILITY_OFF;
          	  distribution_type NORMAL;
          	  observation_object Market_1;
          	  expectation_object Market_1;
          	  comfort_level 0.66;
          	  state_property override;
          	  observation_property current_market.clearing_price;
          	  stdev_observation_property std24;
          	  expectation_property avg24;
          };
     };

}

object triplex_line {
       name tl_B_9_645;
       phases BS;
       from tn_B_645;
       to tm_B_9_645;
       length 15.07;
       configuration trip_line_config;
       groupid Triplex_Line;
}

object triplex_meter {
       name tm_B_9_645;
       phases BS;
       nominal_voltage 120;
       groupid House_Meter;
}

object house {
     parent tm_B_9_645;
     name house9B_tm_B_9_645;
     floor_area 2196;
     schedule_skew -831;
     heating_system_type GAS;
     cooling_system_type ELECTRIC;
          object passive_controller {
               base_setpoint cooling7*1;
               control_mode RAMP;
               sensitivity 1;
               expectation_obj Market_1;
               expectation_prop avg24;
               setpoint_prop cooling_setpoint;
               state_prop override;
               observation_obj Market_1;
               observation_prop current_market.clearing_price;
               mean_observation_prop avg24;
               stdev_observation_prop std24;

               // Standard deviation 2.56
               range_low -0.654;
               range_high 1.090;
               ramp_low 3.919;
               ramp_high 2.352;
          };

     thermal_integrity_level 5;
     air_temperature 70;
     mass_temperature 70;
     cooling_COP 3.1;
     object ZIPload {
           base_power LIGHTS*1.04;
           schedule_skew -831;
           heatgain_fraction 0.9;
           power_pf 1.000;
           current_pf 1.000;
           impedance_pf 1.000;
           impedance_fraction 0.300000;
           current_fraction 0.300000;
           power_fraction 0.400000;
     };
}

object triplex_line {
       name tl_B_10_645;
       phases BS;
       from tn_B_645;
       to tm_B_10_645;
       length 12.91;
       configuration trip_line_config;
       groupid Triplex_Line;
}

object triplex_meter {
       name tm_B_10_645;
       phases BS;
       nominal_voltage 120;
       groupid House_Meter;
}

object house {
     parent tm_B_10_645;
     name house10B_tm_B_10_645;
     floor_area 1783;
     schedule_skew 651;
     heating_system_type HEAT_PUMP;
     heating_COP 3.3;
     cooling_system_type ELECTRIC;
          object passive_controller {
               base_setpoint cooling5*1;
               control_mode RAMP;
               sensitivity 1;
               expectation_obj Market_1;
               expectation_prop avg24;
               setpoint_prop cooling_setpoint;
               state_prop override;
               observation_obj Market_1;
               observation_prop current_market.clearing_price;
               mean_observation_prop avg24;
               stdev_observation_prop std24;

               // Standard deviation 2.00
               range_low -1.498;
               range_high 2.496;
               ramp_low 1.336;
               ramp_high 0.802;
          };

          heating_setpoint heating1*1;
          object passive_controller {
               base_setpoint 100;
               control_mode NONE;
               sensitivity 1;
               expectation_obj Market_1;
               expectation_prop avg24;
               setpoint_prop heating_setpoint;
               state_prop override;
               observation_obj Market_1;
               observation_prop current_market.clearing_price;
               mean_observation_prop avg24;
               stdev_observation_prop std24;

               // Standard deviation -2.00
               range_low -2.496;
               range_high 1.498;
               ramp_low -0.802;
               ramp_high -1.336;
          };

     thermal_integrity_level 6;
     air_temperature 70;
     mass_temperature 70;
     cooling_COP 3.8;
     object ZIPload {
           base_power LIGHTS*1.15;
           schedule_skew 651;
           heatgain_fraction 0.9;
           power_pf 1.000;
           current_pf 1.000;
           impedance_pf 1.000;
           impedance_fraction 0.300000;
           current_fraction 0.300000;
           power_fraction 0.400000;
     };
     object waterheater {
          schedule_skew 651;
          tank_volume 50;
          heating_element_capacity 5.0 kW;
          tank_setpoint 142.2;
          temperature 135;
          thermostat_deadband 2.4;
          location INSIDE;
          tank_UA 2.9;
          demand water11*1;
          object passive_controller {
          	  period 300;
              control_mode PROBABILITY_OFF;
          	  distribution_type NORMAL;
          	  observation_object Market_1;
          	  expectation_object Market_1;
          	  comfort_level 1.00;
          	  state_property override;
          	  observation_property current_market.clearing_price;
          	  stdev_observation_property std24;
          	  expectation_property avg24;
          };
     };

}

object triplex_line {
       name tl_B_11_645;
       phases BS;
       from tn_B_645;
       to tm_B_11_645;
       length 12.33;
       configuration trip_line_config;
       groupid Triplex_Line;
}

object triplex_meter {
       name tm_B_11_645;
       phases BS;
       nominal_voltage 120;
       groupid House_Meter;
}

object house {
     parent tm_B_11_645;
     name house11B_tm_B_11_645;
     floor_area 1997;
     schedule_skew 318;
     heating_system_type GAS;
     cooling_system_type ELECTRIC;
          object passive_controller {
               base_setpoint cooling6*1;
               control_mode RAMP;
               sensitivity 1;
               expectation_obj Market_1;
               expectation_prop avg24;
               setpoint_prop cooling_setpoint;
               state_prop override;
               observation_obj Market_1;
               observation_prop current_market.clearing_price;
               mean_observation_prop avg24;
               stdev_observation_prop std24;

               // Standard deviation 2.07
               range_low -1.400;
               range_high 2.333;
               ramp_low 1.476;
               ramp_high 0.886;
          };

     thermal_integrity_level 5;
     air_temperature 70;
     mass_temperature 70;
     cooling_COP 2.5;
     object ZIPload {
           base_power LIGHTS*0.95;
           schedule_skew 318;
           heatgain_fraction 0.9;
           power_pf 1.000;
           current_pf 1.000;
           impedance_pf 1.000;
           impedance_fraction 0.300000;
           current_fraction 0.300000;
           power_fraction 0.400000;
     };
}

object triplex_line {
       name tl_B_12_645;
       phases BS;
       from tn_B_645;
       to tm_B_12_645;
       length 13.42;
       configuration trip_line_config;
       groupid Triplex_Line;
}

object triplex_meter {
       name tm_B_12_645;
       phases BS;
       nominal_voltage 120;
       groupid House_Meter;
}

object house {
     parent tm_B_12_645;
     name house12B_tm_B_12_645;
     floor_area 1494;
     schedule_skew -2345;
     heating_system_type GAS;
     cooling_system_type ELECTRIC;
          object passive_controller {
               base_setpoint cooling2*1;
               control_mode RAMP;
               sensitivity 1;
               expectation_obj Market_1;
               expectation_prop avg24;
               setpoint_prop cooling_setpoint;
               state_prop override;
               observation_obj Market_1;
               observation_prop current_market.clearing_price;
               mean_observation_prop avg24;
               stdev_observation_prop std24;

               // Standard deviation 2.05
               range_low -1.423;
               range_high 2.371;
               ramp_low 1.442;
               ramp_high 0.865;
          };

     thermal_integrity_level 3;
     air_temperature 70;
     mass_temperature 70;
     cooling_COP 3.1;
     object ZIPload {
           base_power LIGHTS*0.99;
           schedule_skew -2345;
           heatgain_fraction 0.9;
           power_pf 1.000;
           current_pf 1.000;
           impedance_pf 1.000;
           impedance_fraction 0.300000;
           current_fraction 0.300000;
           power_fraction 0.400000;
     };
}

object triplex_line {
       name tl_B_13_645;
       phases BS;
       from tn_B_645;
       to tm_B_13_645;
       length 15.01;
       configuration trip_line_config;
       groupid Triplex_Line;
}

object triplex_meter {
       name tm_B_13_645;
       phases BS;
       nominal_voltage 120;
       groupid House_Meter;
}

object house {
     parent tm_B_13_645;
     name house13B_tm_B_13_645;
     floor_area 1262;
     schedule_skew -3600;
     heating_system_type HEAT_PUMP;
     heating_COP 2.6;
     cooling_system_type ELECTRIC;
          object passive_controller {
               base_setpoint cooling7*1;
               control_mode RAMP;
               sensitivity 1;
               expectation_obj Market_1;
               expectation_prop avg24;
               setpoint_prop cooling_setpoint;
               state_prop override;
               observation_obj Market_1;
               observation_prop current_market.clearing_price;
               mean_observation_prop avg24;
               stdev_observation_prop std24;

               // Standard deviation 2.05
               range_low -1.431;
               range_high 2.385;
               ramp_low 1.430;
               ramp_high 0.858;
          };

          heating_setpoint heating3*1;
          object passive_controller {
               base_setpoint 100;
               control_mode NONE;
               sensitivity 1;
               expectation_obj Market_1;
               expectation_prop avg24;
               setpoint_prop heating_setpoint;
               state_prop override;
               observation_obj Market_1;
               observation_prop current_market.clearing_price;
               mean_observation_prop avg24;
               stdev_observation_prop std24;

               // Standard deviation -2.05
               range_low -2.385;
               range_high 1.431;
               ramp_low -0.858;
               ramp_high -1.430;
          };

     thermal_integrity_level 5;
     air_temperature 70;
     mass_temperature 70;
     cooling_COP 2.6;
     object ZIPload {
           base_power LIGHTS*0.59;
           schedule_skew -3600;
           heatgain_fraction 0.9;
           power_pf 1.000;
           current_pf 1.000;
           impedance_pf 1.000;
           impedance_fraction 0.300000;
           current_fraction 0.300000;
           power_fraction 0.400000;
     };
     object waterheater {
          schedule_skew -3600;
          tank_volume 50;
          heating_element_capacity 4.7 kW;
          tank_setpoint 136.6;
          temperature 135;
          thermostat_deadband 3.7;
          location INSIDE;
          tank_UA 2.6;
          demand water20*1;
          object passive_controller {
          	  period 300;
              control_mode PROBABILITY_OFF;
          	  distribution_type NORMAL;
          	  observation_object Market_1;
          	  expectation_object Market_1;
          	  comfort_level 0.95;
          	  state_property override;
          	  observation_property current_market.clearing_price;
          	  stdev_observation_property std24;
          	  expectation_property avg24;
          };
     };

}

object triplex_line {
       name tl_B_14_645;
       phases BS;
       from tn_B_645;
       to tm_B_14_645;
       length 16.98;
       configuration trip_line_config;
       groupid Triplex_Line;
}

object triplex_meter {
       name tm_B_14_645;
       phases BS;
       nominal_voltage 120;
       groupid House_Meter;
}

object house {
     parent tm_B_14_645;
     name house14B_tm_B_14_645;
     floor_area 1943;
     schedule_skew -1368;
     heating_system_type HEAT_PUMP;
     heating_COP 3.5;
     cooling_system_type ELECTRIC;
          object passive_controller {
               base_setpoint cooling2*1;
               control_mode RAMP;
               sensitivity 1;
               expectation_obj Market_1;
               expectation_prop avg24;
               setpoint_prop cooling_setpoint;
               state_prop override;
               observation_obj Market_1;
               observation_prop current_market.clearing_price;
               mean_observation_prop avg24;
               stdev_observation_prop std24;

               // Standard deviation 2.55
               range_low -0.682;
               range_high 1.137;
               ramp_low 3.731;
               ramp_high 2.239;
          };

          heating_setpoint heating8*1;
          object passive_controller {
               base_setpoint 100;
               control_mode NONE;
               sensitivity 1;
               expectation_obj Market_1;
               expectation_prop avg24;
               setpoint_prop heating_setpoint;
               state_prop override;
               observation_obj Market_1;
               observation_prop current_market.clearing_price;
               mean_observation_prop avg24;
               stdev_observation_prop std24;

               // Standard deviation -2.55
               range_low -1.137;
               range_high 0.682;
               ramp_low -2.239;
               ramp_high -3.731;
          };

     thermal_integrity_level 6;
     air_temperature 70;
     mass_temperature 70;
     cooling_COP 2.8;
     object ZIPload {
           base_power LIGHTS*0.93;
           schedule_skew -1368;
           heatgain_fraction 0.9;
           power_pf 1.000;
           current_pf 1.000;
           impedance_pf 1.000;
           impedance_fraction 0.300000;
           current_fraction 0.300000;
           power_fraction 0.400000;
     };
     object waterheater {
          schedule_skew -1368;
          tank_volume 50;
          heating_element_capacity 4.5 kW;
          tank_setpoint 133.5;
          temperature 135;
          thermostat_deadband 4.1;
          location INSIDE;
          tank_UA 2.9;
          demand water16*1;
          object passive_controller {
          	  period 300;
              control_mode PROBABILITY_OFF;
          	  distribution_type NORMAL;
          	  observation_object Market_1;
          	  expectation_object Market_1;
          	  comfort_level 0.45;
          	  state_property override;
          	  observation_property current_market.clearing_price;
          	  stdev_observation_property std24;
          	  expectation_property avg24;
          };
     };

}

object triplex_line {
       name tl_B_15_645;
       phases BS;
       from tn_B_645;
       to tm_B_15_645;
       length 18.87;
       configuration trip_line_config;
       groupid Triplex_Line;
}

object triplex_meter {
       name tm_B_15_645;
       phases BS;
       nominal_voltage 120;
       groupid House_Meter;
}

object house {
     parent tm_B_15_645;
     name house15B_tm_B_15_645;
     floor_area 1869;
     schedule_skew 2498;
     heating_system_type GAS;
     cooling_system_type ELECTRIC;
          object passive_controller {
               base_setpoint cooling8*1;
               control_mode RAMP;
               sensitivity 1;
               expectation_obj Market_1;
               expectation_prop avg24;
               setpoint_prop cooling_setpoint;
               state_prop override;
               observation_obj Market_1;
               observation_prop current_market.clearing_price;
               mean_observation_prop avg24;
               stdev_observation_prop std24;

               // Standard deviation 2.22
               range_low -1.169;
               range_high 1.949;
               ramp_low 1.899;
               ramp_high 1.139;
          };

     thermal_integrity_level 5;
     air_temperature 70;
     mass_temperature 70;
     cooling_COP 3.8;
     object ZIPload {
           base_power LIGHTS*1.00;
           schedule_skew 2498;
           heatgain_fraction 0.9;
           power_pf 1.000;
           current_pf 1.000;
           impedance_pf 1.000;
           impedance_fraction 0.300000;
           current_fraction 0.300000;
           power_fraction 0.400000;
     };
}

object triplex_line {
       name tl_B_16_645;
       phases BS;
       from tn_B_645;
       to tm_B_16_645;
       length 13.62;
       configuration trip_line_config;
       groupid Triplex_Line;
}

object triplex_meter {
       name tm_B_16_645;
       phases BS;
       nominal_voltage 120;
       groupid House_Meter;
}

object house {
     parent tm_B_16_645;
     name house16B_tm_B_16_645;
     floor_area 1761;
     schedule_skew -220;
     heating_system_type HEAT_PUMP;
     heating_COP 2.0;
     cooling_system_type ELECTRIC;
          object passive_controller {
               base_setpoint cooling2*1;
               control_mode RAMP;
               sensitivity 1;
               expectation_obj Market_1;
               expectation_prop avg24;
               setpoint_prop cooling_setpoint;
               state_prop override;
               observation_obj Market_1;
               observation_prop current_market.clearing_price;
               mean_observation_prop avg24;
               stdev_observation_prop std24;

               // Standard deviation 2.15
               range_low -1.270;
               range_high 2.117;
               ramp_low 1.695;
               ramp_high 1.017;
          };

          heating_setpoint heating8*1;
          object passive_controller {
               base_setpoint 100;
               control_mode NONE;
               sensitivity 1;
               expectation_obj Market_1;
               expectation_prop avg24;
               setpoint_prop heating_setpoint;
               state_prop override;
               observation_obj Market_1;
               observation_prop current_market.clearing_price;
               mean_observation_prop avg24;
               stdev_observation_prop std24;

               // Standard deviation -2.15
               range_low -2.117;
               range_high 1.270;
               ramp_low -1.017;
               ramp_high -1.695;
          };

     thermal_integrity_level 4;
     air_temperature 70;
     mass_temperature 70;
     cooling_COP 3.6;
     object ZIPload {
           base_power LIGHTS*0.98;
           schedule_skew -220;
           heatgain_fraction 0.9;
           power_pf 1.000;
           current_pf 1.000;
           impedance_pf 1.000;
           impedance_fraction 0.300000;
           current_fraction 0.300000;
           power_fraction 0.400000;
     };
     object waterheater {
          schedule_skew -220;
          tank_volume 50;
          heating_element_capacity 4.1 kW;
          tank_setpoint 130.9;
          temperature 135;
          thermostat_deadband 3.9;
          location INSIDE;
          tank_UA 2.9;
          demand water12*1;
          object passive_controller {
          	  period 300;
              control_mode PROBABILITY_OFF;
          	  distribution_type NORMAL;
          	  observation_object Market_1;
          	  expectation_object Market_1;
          	  comfort_level 0.85;
          	  state_property override;
          	  observation_property current_market.clearing_price;
          	  stdev_observation_property std24;
          	  expectation_property avg24;
          };
     };

}

object triplex_line {
       name tl_B_17_645;
       phases BS;
       from tn_B_645;
       to tm_B_17_645;
       length 19.71;
       configuration trip_line_config;
       groupid Triplex_Line;
}

object triplex_meter {
       name tm_B_17_645;
       phases BS;
       nominal_voltage 120;
       groupid House_Meter;
}

object house {
     parent tm_B_17_645;
     name house17B_tm_B_17_645;
     floor_area 2849;
     schedule_skew 16;
     heating_system_type GAS;
     cooling_system_type ELECTRIC;
          object passive_controller {
               base_setpoint cooling3*1;
               control_mode RAMP;
               sensitivity 1;
               expectation_obj Market_1;
               expectation_prop avg24;
               setpoint_prop cooling_setpoint;
               state_prop override;
               observation_obj Market_1;
               observation_prop current_market.clearing_price;
               mean_observation_prop avg24;
               stdev_observation_prop std24;

               // Standard deviation 2.57
               range_low -0.651;
               range_high 1.085;
               ramp_low 3.943;
               ramp_high 2.366;
          };

     thermal_integrity_level 5;
     air_temperature 70;
     mass_temperature 70;
     cooling_COP 3.6;
     object ZIPload {
           base_power LIGHTS*1.48;
           schedule_skew 16;
           heatgain_fraction 0.9;
           power_pf 1.000;
           current_pf 1.000;
           impedance_pf 1.000;
           impedance_fraction 0.300000;
           current_fraction 0.300000;
           power_fraction 0.400000;
     };
}

object triplex_line {
       name tl_B_18_645;
       phases BS;
       from tn_B_645;
       to tm_B_18_645;
       length 12.13;
       configuration trip_line_config;
       groupid Triplex_Line;
}

object triplex_meter {
       name tm_B_18_645;
       phases BS;
       nominal_voltage 120;
       groupid House_Meter;
}

object house {
     parent tm_B_18_645;
     name house18B_tm_B_18_645;
     floor_area 2250;
     schedule_skew 109;
     heating_system_type HEAT_PUMP;
     heating_COP 2.6;
     cooling_system_type ELECTRIC;
          object passive_controller {
               base_setpoint cooling4*1;
               control_mode RAMP;
               sensitivity 1;
               expectation_obj Market_1;
               expectation_prop avg24;
               setpoint_prop cooling_setpoint;
               state_prop override;
               observation_obj Market_1;
               observation_prop current_market.clearing_price;
               mean_observation_prop avg24;
               stdev_observation_prop std24;

               // Standard deviation 2.51
               range_low -0.737;
               range_high 1.229;
               ramp_low 3.402;
               ramp_high 2.041;
          };

          heating_setpoint heating7*1;
          object passive_controller {
               base_setpoint 100;
               control_mode NONE;
               sensitivity 1;
               expectation_obj Market_1;
               expectation_prop avg24;
               setpoint_prop heating_setpoint;
               state_prop override;
               observation_obj Market_1;
               observation_prop current_market.clearing_price;
               mean_observation_prop avg24;
               stdev_observation_prop std24;

               // Standard deviation -2.51
               range_low -1.229;
               range_high 0.737;
               ramp_low -2.041;
               ramp_high -3.402;
          };

     thermal_integrity_level 3;
     air_temperature 70;
     mass_temperature 70;
     cooling_COP 2.6;
     object ZIPload {
           base_power LIGHTS*1.24;
           schedule_skew 109;
           heatgain_fraction 0.9;
           power_pf 1.000;
           current_pf 1.000;
           impedance_pf 1.000;
           impedance_fraction 0.300000;
           current_fraction 0.300000;
           power_fraction 0.400000;
     };
     object waterheater {
          schedule_skew 109;
          tank_volume 50;
          heating_element_capacity 4.4 kW;
          tank_setpoint 130.9;
          temperature 135;
          thermostat_deadband 2.5;
          location INSIDE;
          tank_UA 3.1;
          demand water17*1;
          object passive_controller {
          	  period 300;
              control_mode PROBABILITY_OFF;
          	  distribution_type NORMAL;
          	  observation_object Market_1;
          	  expectation_object Market_1;
          	  comfort_level 0.49;
          	  state_property override;
          	  observation_property current_market.clearing_price;
          	  stdev_observation_property std24;
          	  expectation_property avg24;
          };
     };

}

object triplex_line {
       name tl_B_19_645;
       phases BS;
       from tn_B_645;
       to tm_B_19_645;
       length 15.07;
       configuration trip_line_config;
       groupid Triplex_Line;
}

object triplex_meter {
       name tm_B_19_645;
       phases BS;
       nominal_voltage 120;
       groupid House_Meter;
}

object house {
     parent tm_B_19_645;
     name house19B_tm_B_19_645;
     floor_area 1631;
     schedule_skew 1293;
     heating_system_type GAS;
     cooling_system_type ELECTRIC;
          object passive_controller {
               base_setpoint cooling5*1;
               control_mode RAMP;
               sensitivity 1;
               expectation_obj Market_1;
               expectation_prop avg24;
               setpoint_prop cooling_setpoint;
               state_prop override;
               observation_obj Market_1;
               observation_prop current_market.clearing_price;
               mean_observation_prop avg24;
...